  
       XFOIL         Version 6.99
  
 Calculated polar for: FX63-137_f70_m5                                 
  
 1 1 Reynolds number fixed          Mach number fixed         
  
 xtrf =   1.000 (top)        1.000 (bottom)  
 Mach =   0.000     Re =     0.217 e 6     Ncrit =   9.000
  
   alpha    CL        CD       CDp       CM     Top_Xtr  Bot_Xtr
  ------ -------- --------- --------- -------- -------- --------
  -1.379   0.3765   0.01275   0.00606  -0.1558   0.7209   0.4603
